/*--------------------------------*- C++ -*----------------------------------*\
| =========                 |                                                 |
| \\      /  F ield         | OpenFOAM: The Open Source CFD Toolbox           |
|  \\    /   O peration     | Version:  2.2.0                                 |
|   \\  /    A nd           | Web:      www.OpenFOAM.org                      |
|    \\/     M anipulation  |                                                 |
\*---------------------------------------------------------------------------*/
FoamFile
{
    version     2.0;
    format      ascii;
    class       dictionary;
    location    "system";
    object      setFieldsDict;
}
// * * * * * * * * * * * * * * * * * * * * * * * * * * * * * * * * * * * * * //

/*
defaultFieldValues
(
    volScalarFieldValue alpha1 0
);
*/
regions
(
    boxToCell
    {
        box (.47 -1 0) (.53 1 .85);
        fieldValues
        (
            volScalarFieldValue alpha1 0
        );
    }
);


// ************************************************************************* //
