/*--------------------------------*- C++ -*----------------------------------*\
| =========                 |                                                 |
| \\      /  F ield         | OpenFOAM: The Open Source CFD Toolbox           |
|  \\    /   O peration     | Version:  2.2.0                                 |
|   \\  /    A nd           | Web:      www.OpenFOAM.org                      |
|    \\/     M anipulation  |                                                 |
\*---------------------------------------------------------------------------*/
FoamFile
{
    version     2.0;
    format      ascii;
    class       dictionary;
    location    "system";
    object      fvSchemes;
}
// * * * * * * * * * * * * * * * * * * * * * * * * * * * * * * * * * * * * * //

ddtSchemes
{
    default         CrankNicolson 0.5;
}

gradSchemes
{
    default         Gauss linear;
}

divSchemes
{
    div(rho*phi,U)  Gauss limitedLinearV 1; //OF-2.2.0
    div(rhoPhi,U)  Gauss limitedLinearV 1; //OF-4.0
    div(phi,alpha)  Gauss vanLeer;
    div((muEff*dev(T(grad(U))))) Gauss linear; //OF-2.2.0
    div(((rho*nuEff)*dev2(T(grad(U))))) Gauss linear; //OF-4.0
}

laplacianSchemes
{
    default         Gauss linear corrected;
}

interpolationSchemes
{
    default         linear;
}

snGradSchemes
{
    default         corrected;
}

fluxRequired
{
    default         no;
    p_rgh;
    pd;
    pcorr;
    alpha1;
//    alpha.water;
}


// ************************************************************************* //
