/*--------------------------------*- C++ -*----------------------------------*\
| =========                 |                                                 |
| \\      /  F ield         | OpenFOAM Extend Project: Open source CFD        |
|  \\    /   O peration     | Version:  3.1-ext                               |
|   \\  /    A nd           | Web:      www.extend-project.de                 |
|    \\/     M anipulation  |                                                 |
\*---------------------------------------------------------------------------*/
FoamFile
{
    version         2.0;
    format          ascii;
    class           dictionary;
    location       "constant/polyMesh";
    object          blockMeshDict;
}
// * * * * * * * * * * * * * * * * * * * * * * * * * * * * * * * * * * * * * //


convertToMeters 1;

vertices        
(
    // z = 0 plane

    // First level
    (-4 0 0)
    (0 0 0)
    (1 0.2 0)
    (5 0.2 0)

    // Second level
    (-4 1 0)
    (0 1 0)
    (1 1 0)
    (5 1 0)

    // Third level
    (-4 2 0)
    (0 2 0)
    (1 2 0)
    (5 2 0)

    // z = 0.1 plane

    // First level
    (-4 0 0.1)
    (0 0 0.1)
    (1 0.2 0.1)
    (5 0.2 0.1)

    // Second level
    (-4 1 0.1)
    (0 1 0.1)
    (1 1 0.1)
    (5 1 0.1)

    // Third level
    (-4 2 0.1)
    (0 2 0.1)
    (1 2 0.1)
    (5 2 0.1)
);

blocks          
(
    // First to second level
    hex (0 1 5 4 12 13 17 16) (50 50 1) simpleGrading (0.2 0.2 1)
    hex (1 2 6 5 13 14 18 17) (30 50 1) simpleGrading (1 0.2 1)
    hex (2 3 7 6 14 15 19 18) (50 50 1) simpleGrading (5 0.2 1)
    
    // Second to third level
    hex (4 5 9 8 16 17 21 20) (50 50 1) simpleGrading (0.2 5 1)
    hex (5 6 10 9 17 18 22 21) (30 50 1) simpleGrading (1 5 1)
    hex (6 7 11 10 18 19 23 22) (50 50 1) simpleGrading (5 5 1)
);

edges           
(
);

patches         
(
    wall bottom
    (
        (0 1 13 12)
        (1 2 14 13)
        (2 3 15 14)
    )

    patch inletWater
    (
        (4 0 12 16)
    )

    patch inletAir
    (
        (8 4 16 20)
    )

    patch outlet
    (
        (3 7 19 15)
        (7 11 23 19)
    )

    patch atmosphere 
    (
        (9 8 20 21)
        (10 9 21 22)
        (11 10 22 23)
    )
);

mergePatchPairs
();


// ************************************************************************* //
