/*--------------------------------*- C++ -*----------------------------------*\
| =========                 |                                                 |
| \\      /  F ield         | OpenFOAM: The Open Source CFD Toolbox           |
|  \\    /   O peration     | Version:  v1812                                 |
|   \\  /    A nd           | Web:      www.OpenFOAM.com                      |
|    \\/     M anipulation  |                                                 |
\*---------------------------------------------------------------------------*/
FoamFile
{
    version     2.0;
    format      ascii;
    class       dictionary;
    location    "system";
    object      fvSolution;
}
// * * * * * * * * * * * * * * * * * * * * * * * * * * * * * * * * * * * * * //

solvers
{
    "alpha.water.*"
    {
        nAlphaCorr      2;
        nAlphaSubCycles 1;
        cAlpha          1;

        MULESCorr       yes;
        nLimiterIter    8;

        solver          smoothSolver;
        smoother        symGaussSeidel;
        tolerance       1e-8;
        relTol          0;
    }

    "pcorr.*"
    {
        solver          PCG;
        preconditioner  DIC;
        tolerance       1e-10;
        relTol          0;
        maxIter         100;
    }

    p_rgh
    {
        solver          GAMG;
        smoother        DIC;
        tolerance       1e-05;
        relTol          0.01;
    }

    p_rghFinal
    {
        $p_rgh;
        relTol          0;
        maxIter         20;
    }

    U
    {
        prescribedU     true;
        solver          smoothSolver;
        smoother        GaussSeidel;
        tolerance       1e-06;
        relTol          0;
        nSweeps         1;
    }
}

PIMPLE
{
    frozenFlow      yes;
    momentumPredictor no;
    nCorrectors     -1;
    nNonOrthogonalCorrectors 0;
    correctPhi      yes;

    pRefPoint       (0 0 0);
    pRefValue       1e5;
}

relaxationFactors
{
    equations
    {
        "U.*"           1;
    }
}


// ************************************************************************* //
