/*--------------------------------*- C++ -*----------------------------------*\
| =========                 |                                                 |
| \\      /  F ield         | OpenFOAM: The Open Source CFD Toolbox           |
|  \\    /   O peration     | Version:  v1906                                 |
|   \\  /    A nd           | Web:      www.OpenFOAM.com                      |
|    \\/     M anipulation  |                                                 |
\*---------------------------------------------------------------------------*/
FoamFile
{
    version         2;
    format          ascii;
    class           dictionary;
    location        "system";
    object          controlDict;
}

application     interFlow;

startFrom       latestTime;

startTime       0;

stopAt          endTime;

endTime         3;

deltaT          0.005;
//deltaT          0.001;

writeControl    adjustableRunTime;

writeInterval   0.01;

purgeWrite      0;

writeFormat     binary;

writePrecision  8;

writeCompression off;

timeFormat      general;

timePrecision   6;

runTimeModifiable yes;

adjustTimeStep  yes;

maxCo           0.8;

maxAlphaCo      0.8;

maxDeltaT       1;


functions
{
    inletFlux
    {
        type            surfaceFieldValue;
        libs            ( "libfieldFunctionObjects.so" );
        writeControl    timeStep;
        log             true;
        writeFields     false;
        regionType      patch;
        name            inlet;
        operation       sum;
        fields          ( rhoPhi );
    }

    outletFlux
    {
        type            surfaceFieldValue;
        libs            ( "libfieldFunctionObjects.so" );
        writeControl    timeStep;
        log             true;
        writeFields     false;
        regionType      patch;
        name            outlet;
        operation       sum;
        fields          ( rhoPhi );
    }

    atmosphereFlux
    {
        type            surfaceFieldValue;
        libs            ( "libfieldFunctionObjects.so" );
        writeControl    timeStep;
        log             true;
        writeFields     false;
        regionType      patch;
        name            atmosphere;
        operation       sum;
        fields          ( rhoPhi );
    }
}


// ************************************************************************* //
