/*--------------------------------*- C++ -*----------------------------------*\
| =========                 |                                                 |
| \\      /  F ield         | OpenFOAM: The Open Source CFD Toolbox           |
|  \\    /   O peration     | Version:  2.2.0                                 |
|   \\  /    A nd           | Web:      www.OpenFOAM.org                      |
|    \\/     M anipulation  |                                                 |
\*---------------------------------------------------------------------------*/
FoamFile
{
    version     2.0;
    format      ascii;
    class       dictionary;
    object      blockMeshDict;
}
// * * * * * * * * * * * * * * * * * * * * * * * * * * * * * * * * * * * * * //

convertToMeters 1;

L	1;
nx	100;

y1 	-.05;
y2	.05;
ny	1;

H	1;
nz	100;

vertices
(
    (0 $y1 0)
    ($L $y1 0)
    ($L $y2 0)
    (0 $y2 0)
    (0 $y1 $H)
    ($L $y1 $H)
    ($L $y2 $H)
    (0 $y2 $H)
);

blocks
(
    hex (0 1 2 3 4 5 6 7) ($nx $ny $nz) simpleGrading (1 1 1)
);

edges
(
);

boundary
(
    rim
    {
        type patch;
        faces
        (
            (4 5 6 7)
            (0 4 7 3)
            (1 2 6 5)
            (0 3 2 1)
        );
    }
    front
    {
        type empty;
        faces
        (
            (0 1 5 4)
        );
    }
    back
    {
        type empty;
        faces
        (
            (2 3 7 6)
        );
    }
);

mergePatchPairs
(
);

// ************************************************************************* //
